test
     RDKit          3D

 10 11  0  0  0  0  0  0  0  0999 V2000
   -1.1263    0.0243    0.1052 C   0  0  0  0  0  0  0  0  0  0  0  0
   -1.3978    1.3681    0.0116 C   0  0  0  0  0  0  0  0  0  0  0  0
   -0.3652    2.2447   -0.1607 C   0  0  0  0  0  0  0  0  0  0  0  0
    0.9514    1.8252   -0.2448 C   0  0  0  0  0  0  0  0  0  0  0  0
    1.2471    0.4722   -0.1527 C   0  0  0  0  0  0  0  0  0  0  0  0
    0.1820   -0.4189    0.0239 C   0  0  0  0  0  0  0  0  0  0  0  0
    2.3831   -0.2361   -0.1947 N   0  0  0  0  0  0  0  0  0  0  0  0
    0.7098   -1.6912    0.0876 C   0  0  0  0  0  0  0  0  0  0  0  0
    2.0933   -1.5383   -0.0531 C   0  0  0  0  0  0  0  0  0  0  0  0
   -2.2181   -0.9694    0.2933 C   0  0  0  0  0  0  0  0  0  0  0  0
  1  2  2  0
  1  6  1  0
  2  3  1  0
  3  4  2  0
  4  5  1  0
  6  8  1  0
  5  6  2  0
  7  5  1  0
  7  9  1  0
  8  9  2  0
  1 10  1  0
M  END

